Version 4
SHEET 1 880 680
WIRE 256 32 -128 32
WIRE 256 112 256 32
WIRE 224 128 48 128
WIRE 448 144 288 144
WIRE 224 160 176 160
WIRE -128 192 -128 32
WIRE 48 192 48 128
WIRE 448 192 448 144
WIRE 176 304 176 160
WIRE 448 304 448 272
WIRE 448 304 176 304
WIRE 448 320 448 304
WIRE -128 512 -128 272
WIRE 48 512 48 272
WIRE 48 512 -128 512
WIRE 448 512 448 400
WIRE 448 512 48 512
FLAG 256 176 0
FLAG 448 512 0
FLAG 448 144 Vo
SYMBOL Opamps\\UniversalOpamp2 256 144 R0
SYMATTR InstName U1
SYMBOL voltage 48 176 R0
SYMATTR InstName Vi
SYMBOL res 432 176 R0
SYMATTR InstName R1
SYMATTR Value 9k
SYMBOL res 432 304 R0
SYMATTR InstName R2
SYMATTR Value 1k
SYMBOL voltage -128 176 R0
WINDOW 123 0 0 Left 0
WINDOW 39 0 0 Left 0
SYMATTR InstName V2
SYMATTR Value 5
TEXT 96 352 Left 2 !.dc Vi -1 1 0.01
