Version 4
SHEET 1 880 724
WIRE 496 32 224 32
WIRE 224 112 224 32
WIRE 496 224 496 32
WIRE 224 288 224 192
WIRE 224 304 224 288
WIRE 16 368 -208 368
WIRE 144 368 16 368
WIRE 176 368 144 368
WIRE 224 416 224 400
WIRE 224 448 224 416
WIRE 384 448 224 448
WIRE -208 464 -208 368
WIRE 16 464 16 368
WIRE 224 496 224 448
WIRE 384 512 384 448
WIRE -208 640 -208 544
WIRE 16 640 16 544
WIRE 16 640 -208 640
WIRE 224 640 224 576
WIRE 224 640 16 640
WIRE 384 640 384 576
WIRE 384 640 224 640
WIRE 496 640 496 304
WIRE 496 640 384 640
WIRE 496 704 496 640
FLAG 144 368 G
FLAG 224 288 D
FLAG 224 416 S
FLAG 496 704 0
SYMBOL voltage 496 208 R0
WINDOW 123 0 0 Left 0
WINDOW 39 0 0 Left 0
SYMATTR InstName V1
SYMATTR Value 10
SYMBOL voltage -208 448 R0
WINDOW 123 0 0 Left 0
WINDOW 39 0 0 Left 0
SYMATTR InstName V2
SYMATTR Value SINE(0 0.1 1k)
SYMBOL res 0 448 R0
SYMATTR InstName R1
SYMATTR Value 1Meg
SYMBOL njf 176 304 R0
SYMATTR InstName J1
SYMATTR Value 2N3819
SYMBOL res 208 480 R0
SYMATTR InstName R2
SYMATTR Value 500
SYMBOL cap 368 512 R0
SYMATTR InstName C1
SYMATTR Value 100µ
SYMBOL res 208 96 R0
SYMATTR InstName R3
SYMATTR Value 1k167
TEXT -208 288 Left 2 !;op
TEXT -208 320 Left 2 !.tran 0 0.01 0 1u
